4

C         -4.029179149020145        0.13430335408642197        0.025394955003425552
C         -2.8593779969507853        1.095391777083632        0.01936965966577792
C         -1.3558467230053282        0.9177934382497652        0.01664848035001489
C         -0.16039687285286008       -0.011116111703113614        0.00298705621769111
